 ****** HSPICE -- G-2012.06-ENG1 32-BIT (Jun 28 2012) RHEL32 ******             
  Copyright (C) 2012 Synopsys, Inc. All Rights Reserved.                        
  Unpublished-rights reserved under US copyright laws.
  This program is protected by law and is subject to the
  terms and conditions of the license agreement from Synopsys.
  Use of this program is your acceptance to be bound by the
  license agreement. HSPICE is the trademark of Synopsys, Inc.
  Input File: /users/jpduarte/research/cmdp/userexample/project1/hspicesimulatio
  Command line options: /users/jpduarte/research/cmdp/userexample/project1/hspicesimulations/idvg/hspicesimaux.sp -o /users/jpduarte/research/cmdp/userexample/project1/hspicesimulations/idvg/hspicesimaux
 lic:  
 lic: FLEXlm: v10.8 
 lic: USER:   jpduarte             HOSTNAME: bwrcrdsl-3.eecs.berkeley.edu 
 lic: HOSTID:                      PID:      20253 
 lic: Using FLEXlm license file: 
 lic: 1701@sunv40z-1.eecs.berkeley.edu 
 lic: Checkout 1 hspice 
 lic: License/Maintenance for hspice will expire on 19-dec-2015/2014.09 
 lic: 1(in_use)/50(total) FLOATING license(s) on SERVER sunv40z-1.eecs.berkeley.
 lic:   
 Init: read install configuration file: /tools/synopsys/hspice/G-2012.06-ENG1/hspice/meta.cfg
 Loading pVA library /users/jpduarte/research/cmdp/userexample/project1/hspicesimulations/idvg/hspicesimaux.pvadir/pvaRTL_linux.so...
1****** HSPICE -- G-2012.06-ENG1 32-BIT (Jun 28 2012) RHEL32 ******             
 ******  
 *script to generate hspice simulation using cmdp, juan duarte

  ******  circuit name directory
 circuit number to circuit name directory
   number circuitname                     definition         multiplier
        0 main circuit
        1 x1.                             bsimimg(va)        1.00 
 **info** *pvaI* Creating Verilog-A module 'bsimimg' for X1

  
 **warning** No connections on ground node.
 **warning**  No DC path to ground from node        0:0.0              defined in subckt 0               ; Connected by HSPICE with gdcpath


      
 *****************************************************************
 ******  option summary
 ******
 runlvl  = 3         bypass  = 2         
  Opening plot unit= 15
 file=/users/jpduarte/research/cmdp/userexample/project1/hspicesimulations/idvg/hspicesimaux.pa0

 ******  
 *script to generate hspice simulation using cmdp, juan duarte

  ******  dc transfer curves tnom=  25.000 temp=  27.000 *****

   *** data name = datadc  1st sweep ***

x

      vd_value                          
                  x1:ids        x1:qs   
  5.0000e-02    3.895e-15    1.322e-17  
    1.00000     4.243e-15    1.322e-17  
  5.0000e-02    5.360e-15    7.035e-18  
    1.00000     5.840e-15    7.035e-18  
  5.0000e-02    7.380e-15    8.470e-19  
    1.00000     8.040e-15    8.470e-19  
  5.0000e-02    1.016e-14   -5.343e-18  
    1.00000     1.107e-14   -5.343e-18  
  5.0000e-02    1.400e-14   -1.153e-17  
    1.00000     1.526e-14   -1.153e-17  
  5.0000e-02    1.930e-14   -1.773e-17  
    1.00000     2.103e-14   -1.773e-17  
  5.0000e-02    2.661e-14   -2.392e-17  
    1.00000     2.899e-14   -2.392e-17  
  5.0000e-02    3.669e-14   -3.012e-17  
    1.00000     3.998e-14   -3.012e-17  
  5.0000e-02    5.061e-14   -3.632e-17  
    1.00000     5.516e-14   -3.632e-17  
  5.0000e-02    6.984e-14   -4.253e-17  
    1.00000     7.611e-14   -4.253e-17  
  5.0000e-02    9.640e-14   -4.873e-17  
    1.00000     1.051e-13   -4.873e-17  
  5.0000e-02    1.331e-13   -5.494e-17  
    1.00000     1.451e-13   -5.494e-17  
  5.0000e-02    1.838e-13   -6.115e-17  
    1.00000     2.003e-13   -6.115e-17  
  5.0000e-02    2.539e-13   -6.736e-17  
    1.00000     2.767e-13   -6.736e-17  
  5.0000e-02    3.507e-13   -7.357e-17  
    1.00000     3.823e-13   -7.357e-17  
  5.0000e-02    4.847e-13   -7.979e-17  
    1.00000     5.284e-13   -7.979e-17  
  5.0000e-02    6.700e-13   -8.601e-17  
    1.00000     7.304e-13   -8.601e-17  
  5.0000e-02    9.262e-13   -9.223e-17  
    1.00000     1.010e-12   -9.223e-17  
  5.0000e-02    1.281e-12   -9.846e-17  
    1.00000     1.396e-12   -9.846e-17  
  5.0000e-02    1.771e-12   -1.047e-16  
    1.00000     1.932e-12   -1.047e-16  
  5.0000e-02    2.451e-12   -1.109e-16  
    1.00000     2.672e-12   -1.109e-16  
  5.0000e-02    3.391e-12   -1.172e-16  
    1.00000     3.697e-12   -1.172e-16  
  5.0000e-02    4.692e-12   -1.234e-16  
    1.00000     5.117e-12   -1.234e-16  
  5.0000e-02    6.494e-12   -1.296e-16  
    1.00000     7.082e-12   -1.296e-16  
  5.0000e-02    8.990e-12   -1.359e-16  
    1.00000     9.805e-12   -1.359e-16  
  5.0000e-02    1.245e-11   -1.421e-16  
    1.00000     1.358e-11   -1.421e-16  
  5.0000e-02    1.723e-11   -1.484e-16  
    1.00000     1.880e-11   -1.484e-16  
  5.0000e-02    2.387e-11   -1.546e-16  
    1.00000     2.604e-11   -1.546e-16  
  5.0000e-02    3.306e-11   -1.609e-16  
    1.00000     3.607e-11   -1.609e-16  
  5.0000e-02    4.580e-11   -1.672e-16  
    1.00000     4.997e-11   -1.672e-16  
  5.0000e-02    6.346e-11   -1.734e-16  
    1.00000     6.923e-11   -1.734e-16  
  5.0000e-02    8.793e-11   -1.797e-16  
    1.00000     9.594e-11   -1.797e-16  
  5.0000e-02    1.219e-10   -1.860e-16  
    1.00000     1.330e-10   -1.860e-16  
  5.0000e-02    1.689e-10   -1.923e-16  
    1.00000     1.843e-10   -1.923e-16  
  5.0000e-02    2.341e-10   -1.986e-16  
    1.00000     2.555e-10   -1.986e-16  
  5.0000e-02    3.245e-10   -2.049e-16  
    1.00000     3.541e-10   -2.049e-16  
  5.0000e-02    4.499e-10   -2.112e-16  
    1.00000     4.910e-10   -2.112e-16  
  5.0000e-02    6.238e-10   -2.176e-16  
    1.00000     6.807e-10   -2.176e-16  
  5.0000e-02    8.648e-10   -2.240e-16  
    1.00000     9.437e-10   -2.240e-16  
  5.0000e-02    1.199e-09   -2.304e-16  
    1.00000     1.308e-09   -2.304e-16  
  5.0000e-02    1.662e-09   -2.369e-16  
    1.00000     1.814e-09   -2.369e-16  
  5.0000e-02    2.304e-09   -2.435e-16  
    1.00000     2.514e-09   -2.434e-16  
  5.0000e-02    3.194e-09   -2.501e-16  
    1.00000     3.484e-09   -2.501e-16  
  5.0000e-02    4.426e-09   -2.569e-16  
    1.00000     4.835e-09   -2.569e-16  
  5.0000e-02   -9.807e-09   -2.645e-16  
    1.00000    -9.963e-09   -2.644e-16  
  5.0000e-02   -3.832e-08   -2.773e-16  
    1.00000    -3.858e-08   -2.773e-16  
  5.0000e-02   -6.708e-08   -2.917e-16  
    1.00000    -6.761e-08   -2.916e-16  
  5.0000e-02   -9.968e-08   -3.074e-16  
    1.00000    -1.004e-07   -3.073e-16  
  5.0000e-02   -1.360e-07   -3.247e-16  
    1.00000    -1.369e-07   -3.245e-16  
  5.0000e-02   -1.664e-07   -3.438e-16  
    1.00000    -1.766e-07   -3.435e-16  
  5.0000e-02   -1.743e-07   -3.667e-16  
    1.00000    -2.189e-07   -3.643e-16  
  5.0000e-02   -1.877e-07   -3.921e-16  
    1.00000    -2.374e-07   -3.877e-16  
  5.0000e-02   -1.971e-07   -4.201e-16  
    1.00000    -2.569e-07   -4.146e-16  
  5.0000e-02   -2.003e-07   -4.506e-16  
    1.00000    -2.716e-07   -4.441e-16  
  5.0000e-02   -1.946e-07   -4.840e-16  
    1.00000    -2.788e-07   -4.760e-16  
  5.0000e-02   -1.771e-07   -5.203e-16  
    1.00000    -2.754e-07   -5.107e-16  
  5.0000e-02   -1.445e-07   -5.596e-16  
    1.00000    -2.573e-07   -5.481e-16  
  5.0000e-02   -9.328e-08   -6.021e-16  
    1.00000    -2.200e-07   -5.882e-16  
  5.0000e-02   -1.993e-08   -6.477e-16  
    1.00000    -1.588e-07   -6.312e-16  
  5.0000e-02    7.887e-08   -6.966e-16  
    1.00000    -6.807e-08   -6.768e-16  
  5.0000e-02    2.060e-07   -7.485e-16  
    1.00000     5.766e-08   -7.252e-16  
  5.0000e-02    3.638e-07   -8.036e-16  
    1.00000     2.241e-07   -7.762e-16  
  5.0000e-02    5.534e-07   -8.617e-16  
    1.00000     4.367e-07   -8.297e-16  
  5.0000e-02    7.754e-07   -9.227e-16  
    1.00000     7.008e-07   -8.855e-16  
  5.0000e-02    1.029e-06   -9.865e-16  
    1.00000     1.021e-06   -9.436e-16  
  5.0000e-02    1.312e-06   -1.053e-15  
    1.00000     1.402e-06   -1.004e-15  
  5.0000e-02    1.621e-06   -1.122e-15  
    1.00000     1.846e-06   -1.066e-15  
  5.0000e-02    1.954e-06   -1.194e-15  
    1.00000     2.357e-06   -1.130e-15  
  5.0000e-02    2.311e-06   -1.268e-15  
    1.00000     2.936e-06   -1.195e-15  
  5.0000e-02    2.679e-06   -1.344e-15  
    1.00000     3.584e-06   -1.263e-15  
  5.0000e-02    3.057e-06   -1.422e-15  
    1.00000     4.302e-06   -1.332e-15  
  5.0000e-02    3.440e-06   -1.502e-15  
    1.00000     5.089e-06   -1.402e-15  
  5.0000e-02    3.779e-06   -1.587e-15  
    1.00000     5.902e-06   -1.476e-15  
  5.0000e-02    3.862e-06   -1.687e-15  
    1.00000     6.522e-06   -1.567e-15  
  5.0000e-02    3.909e-06   -1.789e-15  
    1.00000     7.181e-06   -1.659e-15  
  5.0000e-02    3.919e-06   -1.893e-15  
    1.00000     7.879e-06   -1.753e-15  
  5.0000e-02    3.891e-06   -1.999e-15  
    1.00000     8.615e-06   -1.848e-15  
  5.0000e-02    3.827e-06   -2.106e-15  
    1.00000     9.391e-06   -1.945e-15  
  5.0000e-02    4.034e-06   -2.220e-15  
    1.00000     1.021e-05   -2.044e-15  
  5.0000e-02    4.254e-06   -2.336e-15  
    1.00000     1.106e-05   -2.143e-15  
  5.0000e-02    4.477e-06   -2.454e-15  
    1.00000     1.196e-05   -2.244e-15  
  5.0000e-02    4.701e-06   -2.572e-15  
    1.00000     1.290e-05   -2.345e-15  
  5.0000e-02    4.926e-06   -2.692e-15  
    1.00000     1.387e-05   -2.448e-15  
  5.0000e-02    5.153e-06   -2.813e-15  
    1.00000     1.489e-05   -2.551e-15  
  5.0000e-02    5.381e-06   -2.935e-15  
    1.00000     1.595e-05   -2.655e-15  
  5.0000e-02    5.610e-06   -3.058e-15  
    1.00000     1.704e-05   -2.760e-15  
  5.0000e-02    5.841e-06   -3.182e-15  
    1.00000     1.818e-05   -2.865e-15  
  5.0000e-02    6.072e-06   -3.307e-15  
    1.00000     1.937e-05   -2.971e-15  
  5.0000e-02    6.305e-06   -3.432e-15  
    1.00000     2.059e-05   -3.078e-15  
  5.0000e-02    6.538e-06   -3.559e-15  
    1.00000     2.185e-05   -3.185e-15  
  5.0000e-02    6.772e-06   -3.686e-15  
    1.00000     2.316e-05   -3.293e-15  
  5.0000e-02    7.007e-06   -3.813e-15  
    1.00000     2.451e-05   -3.401e-15  
  5.0000e-02    7.242e-06   -3.942e-15  
    1.00000     2.590e-05   -3.509e-15  
  5.0000e-02    7.478e-06   -4.071e-15  
    1.00000     2.733e-05   -3.618e-15  
  5.0000e-02    7.715e-06   -4.200e-15  
    1.00000     2.880e-05   -3.728e-15  
  5.0000e-02    7.952e-06   -4.330e-15  
    1.00000     3.032e-05   -3.837e-15  
  5.0000e-02    8.190e-06   -4.460e-15  
    1.00000     3.187e-05   -3.948e-15  
  5.0000e-02    8.445e-06   -4.592e-15  
    1.00000     3.347e-05   -4.058e-15  
  5.0000e-02    8.685e-06   -4.723e-15  
    1.00000     3.511e-05   -4.169e-15  
  5.0000e-02    8.926e-06   -4.855e-15  
    1.00000     3.679e-05   -4.280e-15  
y
-----------------------------------------------

          ***** job concluded
1****** HSPICE -- G-2012.06-ENG1 32-BIT (Jun 28 2012) RHEL32 ******             
 ******  
 *script to generate hspice simulation using cmdp, juan duarte

  ******  job statistics summary tnom=  25.000 temp=  27.000 *****
  
  
 ******  Machine Information  ******
 CPU:
 model name	: Intel(R) Xeon(R) CPU           E5645  @ 2.40GHz
 cpu MHz	: 2393.759
  
 OS:
 Linux version 2.6.32-504.3.3.el6.x86_64 (mockbuild@x86-028.build.eng.bos.redhat.com) (gcc version 4.4.7 20120313 (Red Hat 4.4.7-9) (GCC) ) #1 SMP Fri Dec 12 16:05:43 EST 2014


  ******  HSPICE Threads Information  ******

  Command Line Threads Count :     1
  Available CPU Count        :    12
  Actual Threads Count       :     1


  ******  Circuit Statistics  ******
  # nodes       =      10 # elements   =       5
  # resistors   =       0 # capacitors =       0 # inductors   =       0
  # mutual_inds =       0 # vccs       =       0 # vcvs        =       0
  # cccs        =       0 # ccvs       =       0 # volt_srcs   =       4
  # curr_srcs   =       0 # diodes     =       0 # bjts        =       0
  # jfets       =       0 # mosfets    =       0 # U elements  =       0
  # T elements  =       0 # W elements =       0 # B elements  =       0
  # S elements  =       0 # P elements =       0 # va device   =       1
  # vector_srcs =       0 # N elements =       0


  ******  Runtime Statistics (seconds)  ******

  analysis           time    # points   tot. iter  conv.iter
  op point           0.00           1           0
  dc sweep           0.26         200         516
  readin             0.07
  errchk             0.02
  setup              0.00
  output             0.01


           peak memory used        108.42 megabytes
           total cpu time            0.37 seconds
           total elapsed time        0.76 seconds
           job started at     13:32:46 03/19/2015
           job ended   at     13:32:47 03/19/2015


 lic: Release hspice token(s) 
 lic: total license checkout elapse time:        0.26(s)
